iidm/iidm-serde/src/test/resources/V1_12/danglingLineWithGeneration.xml
<?xml version="1.0" encoding="UTF-8"?>
<iidm:network xmlns:iidm="http://www.powsybl.org/schema/iidm/1_12" id="dangling-line"
              caseDate="2020-07-16T10:08:48.321+02:00" forecastDistance="0" sourceFormat="test"
              minimumValidationLevel="STEADY_STATE_HYPOTHESIS">
    <iidm:substation id="S" country="FR">
        <iidm:voltageLevel id="VL" nominalV="100.0" lowVoltageLimit="80.0" highVoltageLimit="120.0"
                           topologyKind="BUS_BREAKER">
            <iidm:busBreakerTopology>
                <iidm:bus id="BUS"/>
            </iidm:busBreakerTopology>
            <iidm:generator id="G" energySource="OTHER" minP="0.0" maxP="100.0" voltageRegulatorOn="true" targetP="50.0"
                            targetV="100.0" targetQ="30.0" bus="BUS" connectableBus="BUS">
                <iidm:minMaxReactiveLimits minQ="-1.7976931348623157E308" maxQ="1.7976931348623157E308"/>
            </iidm:generator>
            <iidm:boundaryLine id="DL" p0="50.0" q0="30.0" r="10.0" x="1.0" g="1.0E-4" b="1.0E-5" generationMinP="0.0"
                               generationMaxP="900.0" generationVoltageRegulationOn="true" generationTargetP="440.0"
                               generationTargetV="101.0" bus="BUS" connectableBus="BUS" selectedOperationalLimitsGroupId="DEFAULT">
                <iidm:property name="test" value="test"/>
                <iidm:reactiveCapabilityCurve>
                    <iidm:point p="0.0" minQ="-59.3" maxQ="60.0"/>
                    <iidm:point p="70.0" minQ="-54.55" maxQ="46.25"/>
                </iidm:reactiveCapabilityCurve>
                <iidm:operationalLimitsGroup id="DEFAULT">
                    <iidm:currentLimits permanentLimit="100.0">
                        <iidm:temporaryLimit name="20'" acceptableDuration="1200" value="120.0"/>
                        <iidm:temporaryLimit name="10'" acceptableDuration="600" value="140.0"/>
                    </iidm:currentLimits>
                </iidm:operationalLimitsGroup>
            </iidm:boundaryLine>
        </iidm:voltageLevel>
    </iidm:substation>
</iidm:network>
